Version 4
SHEET 1 920 680
WIRE 96 128 64 128
WIRE 112 128 96 128
WIRE 832 128 784 128
WIRE 288 144 288 128
WIRE 384 144 288 144
WIRE 288 160 288 144
WIRE 192 176 176 176
WIRE 208 176 192 176
WIRE 832 176 832 128
WIRE 432 192 432 160
WIRE 784 224 784 128
WIRE 80 240 64 240
WIRE 192 256 192 176
WIRE 192 256 144 256
WIRE 64 336 64 240
WIRE 96 336 64 336
WIRE 64 400 64 336
WIRE 144 400 144 352
WIRE 144 400 64 400
WIRE 720 480 720 448
WIRE 864 480 864 448
WIRE 144 608 144 400
WIRE 720 608 720 560
WIRE 720 608 144 608
WIRE 864 608 864 560
WIRE 864 608 720 608
FLAG 288 224 0
FLAG 432 192 0
FLAG -240 240 0
FLAG -240 496 0
FLAG -304 368 0
FLAG 432 64 Vds
FLAG -240 160 Vds
FLAG -240 416 Vg
FLAG 192 256 Vg
FLAG -304 288 Vd
FLAG 64 128 Vd
FLAG 832 176 0
FLAG 80 240 Vt
SYMBOL nmos 96 176 R270
SYMATTR InstName M1
SYMATTR Value IRLHS6376
SYMBOL cap 272 160 R0
SYMATTR InstName C1
SYMATTR Value 100n
SYMATTR SpiceLine Rpar=10Meg IC=1.5
SYMBOL nmos 384 64 R0
SYMATTR InstName M2
SYMATTR Value IRF9410
SYMBOL voltage -240 144 R0
WINDOW 123 0 0 Left 0
WINDOW 39 0 0 Left 0
SYMATTR InstName V1
SYMATTR Value 3.3
SYMBOL voltage -240 400 R0
WINDOW 123 0 0 Left 0
WINDOW 39 0 0 Left 0
SYMATTR InstName V2
SYMATTR Value -6.6
SYMBOL voltage -304 272 R0
WINDOW 123 0 0 Left 0
WINDOW 39 0 0 Left 0
SYMATTR InstName V3
SYMATTR Value 5
SYMBOL nmos 288 176 M270
SYMATTR InstName M3
SYMATTR Value IRLHS6376
SYMBOL PowerProducts\\LT3092 784 336 R0
SYMATTR InstName U1
SYMBOL res 704 464 R0
SYMATTR InstName R1
SYMATTR Value 2k
SYMBOL res 848 464 R0
SYMATTR InstName R2
SYMATTR Value 2
SYMBOL nmos 96 256 R0
SYMATTR InstName M4
SYMATTR Value IRLHS6376
TEXT -296 40 Left 2 !.op 10m
TEXT -320 568 Left 2 !.step temp 0 100 1
